/*---------------------------------------------------------------------------*\
  =========                 |
  \\      /  F ield         | OpenFOAM: The Open Source CFD Toolbox
   \\    /   O peration     | Website:  https://openfoam.org
    \\  /    A nd           | Version:  7
     \\/     M anipulation  |
\*---------------------------------------------------------------------------*/
Build  : 7
Exec   : createPatch -overwrite
Date   : Feb 23 2020
Time   : 10:02:14
Host   : "DESKTOP-G4K9PBL"
PID    : 455
I/O    : uncollated
Case   : /home/xiaoyu/Workspace_xiaoyu/gitHub/thin_pipeflow_snappyHexMesh/snappy_pipe
nProcs : 1
sigFpe : Enabling floating point exception trapping (FOAM_SIGFPE).
fileModificationChecking : Monitoring run-time modified files using timeStampMaster (fileModificationSkew 10)
allowSystemOperations : Allowing user-supplied system call operations

// * * * * * * * * * * * * * * * * * * * * * * * * * * * * * * * * * * * * * //
Create time

Create polyMesh for time = 0

Reading createPatchDict

Patch 'topPatch' already exists.  Only moving patch faces - type will remain the same
Patch 'bottomPatch' already exists.  Only moving patch faces - type will remain the same
Patch 'wall' already exists.  Only moving patch faces - type will remain the same

Read 9040 faces from faceSet topPatch
Read 9040 faces from faceSet bottomPatch
Read 175441 faces from faceSet wall

Doing topology modification to order faces.

Not synchronising points.

Removing patches with no faces in them.

No patches removed.
Writing repatched mesh to 0

End

