/*---------------------------------------------------------------------------*\
  =========                 |
  \\      /  F ield         | OpenFOAM: The Open Source CFD Toolbox
   \\    /   O peration     | Website:  https://openfoam.org
    \\  /    A nd           | Version:  7
     \\/     M anipulation  |
\*---------------------------------------------------------------------------*/
Build  : 7
Exec   : createPatch -overwrite
Date   : Feb 23 2020
Time   : 11:23:17
Host   : "DESKTOP-G4K9PBL"
PID    : 728
I/O    : uncollated
Case   : /home/xiaoyu/Workspace_xiaoyu/gitHub/thin_pipeflow_snappyHexMesh/snappy_pipe
nProcs : 1
sigFpe : Enabling floating point exception trapping (FOAM_SIGFPE).
fileModificationChecking : Monitoring run-time modified files using timeStampMaster (fileModificationSkew 10)
allowSystemOperations : Allowing user-supplied system call operations

// * * * * * * * * * * * * * * * * * * * * * * * * * * * * * * * * * * * * * //
Create time

Create polyMesh for time = 0

Reading createPatchDict

Adding new patch topPatch as patch 1 from 
{
    type            patch;
}

Adding new patch bottomPatch as patch 2 from 
{
    type            patch;
}

Adding new patch wall as patch 3 from 
{
    type            wall;
}


Read 9000 faces from faceSet topPatch
Read 8992 faces from faceSet bottomPatch
Read 51032 faces from faceSet wall

Doing topology modification to order faces.

Not synchronising points.

Removing patches with no faces in them.

Removing zero-sized patch cylinder type wall at position 0
Removing patches.
Writing repatched mesh to 0

End

